LTspice 24.1.9 for Windows
Circuit: C:\Users\HP\Documents\LTspice\Draft4.net
Start Time: Sat Sep 20 17:37:08 2025
solver = Normal
Maximum thread count: 32
tnom = 27
temp = 27
method = trap
.OP point found by inspection.
Total elapsed time: 0.050 seconds.

Files loaded:
C:\Users\HP\Documents\LTspice\Draft4.net

