LTspice 24.1.9 for Windows
Circuit: C:\Users\HP\Documents\LTspice\Draft7.net
Start Time: Sat Sep 20 19:00:53 2025
solver = Normal
Maximum thread count: 32
tnom = 27
temp = 27
method = trap
.OP point found by inspection.
Total elapsed time: 0.105 seconds.

Files loaded:
C:\Users\HP\Documents\LTspice\Draft7.net

