LTspice 24.1.9 for Windows
Circuit: C:\Users\HP\Documents\LTspice\Draft4.net
Start Time: Sun Sep 21 09:41:35 2025
solver = Normal
Maximum thread count: 32
tnom = 27
temp = 27
method = trap
.OP point found by inspection.
.step 
Total elapsed time: 0.078 seconds.

Files loaded:
C:\Users\HP\Documents\LTspice\Draft4.net
C:\Users\HP\AppData\Local\LTspice\lib\cmp\standard.dio

