LTspice 24.1.9 for Windows
Circuit: C:\Users\HP\Documents\LTspice\Draft1.net
Start Time: Sat Sep 20 17:13:34 2025
solver = Normal
Maximum thread count: 32
tnom = 27
temp = 27
method = trap
C:\Users\HP\Documents\LTspice\Draft1.net(6): Limiting fall time to 1.95156e-19.

V4 NC_04 0 PULSE(0 1 0 1m 0 0 1m)
^^^^^^^^^^^^^^^^^^^^^^^^^^^^^^^^^
.OP point found by inspection.
Total elapsed time: 0.053 seconds.

Files loaded:
C:\Users\HP\Documents\LTspice\Draft1.net

