LTspice 24.1.9 for Windows
Circuit: C:\Users\HP\Documents\LTspice\Draft3.net
Start Time: Sun Sep 21 09:35:50 2025
solver = Normal
Maximum thread count: 32
tnom = 27
temp = 27
method = trap
Per .tran options, skipping operating point for transient analysis.
Total elapsed time: 0.049 seconds.

Files loaded:
C:\Users\HP\Documents\LTspice\Draft3.net

