LTspice 24.1.9 for Windows
Circuit: C:\Users\HP\Documents\LTspice\Draft5.net
Start Time: Sat Sep 20 17:52:00 2025
solver = Normal
Maximum thread count: 32
tnom = 27
temp = 27
method = trap
Direct Newton iteration for .op point succeeded.
Total elapsed time: 0.131 seconds.

Files loaded:
C:\Users\HP\Documents\LTspice\Draft5.net

