LTspice 24.1.9 for Windows
Circuit: C:\Users\HP\Documents\LTspice\Draft1.net
Start Time: Sat Sep 20 16:58:03 2025
solver = Normal
Maximum thread count: 32
tnom = 27
temp = 27
method = trap
Direct Newton iteration for .op point succeeded.
Total elapsed time: 0.046 seconds.

Files loaded:
C:\Users\HP\Documents\LTspice\Draft1.net

