LTspice 24.1.9 for Windows
Circuit: C:\Users\HP\Documents\LTspice\Draft3.net
Start Time: Sat Sep 20 17:28:01 2025
solver = Normal
Maximum thread count: 32
tnom = 27
temp = 27
method = trap
Direct Newton iteration for .op point succeeded.
Total elapsed time: 0.067 seconds.

Files loaded:
C:\Users\HP\Documents\LTspice\Draft3.net

